version 2
run OnOff-0-20121202-18:16:40-5032
attr configname OnOff
attr datetime 20121202-18:16:40
attr experiment OnOff
attr inifile omnetpp.ini
attr iterationvars ""
attr iterationvars2 $repetition=0
attr measurement ""
attr network OnOffNetwork
attr processid 5032
attr repetition 0
attr replication #0
attr resultdir results
attr runnumber 0
attr seedset 0

statistic OnOffNetwork.sink 	"interarrival times"
field count 124
field mean 0.50264601432272
field stddev 0.54721845956678
field sum 62.328105776017
field sqrsum 68.161083174948
field min 0
field max 3.116287456904
bin	-INF	0
bin	-1.558143728452	0
bin	-1.3503912313251	0
bin	-1.1426387341981	0
bin	-0.9348862370712	0
bin	-0.72713373994427	0
bin	-0.51938124281733	0
bin	-0.3116287456904	0
bin	-0.10387624856347	25
bin	0.10387624856347	33
bin	0.3116287456904	23
bin	0.51938124281733	14
bin	0.72713373994427	10
bin	0.9348862370712	6
bin	1.1426387341981	6
bin	1.3503912313251	3
bin	1.558143728452	0
bin	1.7658962255789	1
bin	1.9736487227059	0
bin	2.1814012198328	0
bin	2.3891537169597	1
bin	2.5969062140867	0
bin	2.8046587112136	1
bin	3.0124112083405	1
bin	3.2201637054675	0
bin	3.4279162025944	0
bin	3.6356686997213	0
bin	3.8434211968483	0
bin	4.0511736939752	0
bin	4.2589261911021	0
bin	4.4666786882291	0
bin	4.674431185356	0
