version 2
run SCHRR-0-20121205-17:59:46-4464
attr configname SCHRR
attr datetime 20121205-17:59:46
attr experiment SCHRR
attr inifile omnetpp.ini
attr iterationvars ""
attr iterationvars2 $repetition=0
attr measurement ""
attr network tirtproject.Schedulers.SCHRR
attr processid 4464
attr repetition 0
attr replication #0
attr resultdir results
attr runnumber 0
attr seedset 0

statistic SCHRR.sink 	"interarrival times"
field count 32
field mean 1.484375
field stddev 0.64584026506453
field sum 47.5
field sqrsum 83.438211587337
field min 1
field max 3.845221869141
bin	-INF	0
bin	-0.4226109345705	0
bin	-0.23292947662777	0
bin	-0.043248018685034	0
bin	0.1464334392577	0
bin	0.33611489720043	0
bin	0.52579635514317	0
bin	0.7154778130859	0
bin	0.90515927102863	12
bin	1.0948407289714	3
bin	1.2845221869141	6
bin	1.4742036448568	4
bin	1.6638851027996	0
bin	1.8535665607423	2
bin	2.043248018685	2
bin	2.2329294766278	1
bin	2.4226109345705	0
bin	2.6122923925132	0
bin	2.801973850456	0
bin	2.9916553083987	1
bin	3.1813367663414	0
bin	3.3710182242842	0
bin	3.5606996822269	0
bin	3.7503811401696	1
bin	3.9400625981124	0
bin	4.1297440560551	0
bin	4.3194255139978	0
bin	4.5091069719406	0
bin	4.6987884298833	0
bin	4.888469887826	0
bin	5.0781513457688	0
bin	5.2678328037115	0
