version 2
run ACBannedIP-0-20121203-19:01:07-5088
attr configname ACBannedIP
attr datetime 20121203-19:01:07
attr experiment ACBannedIP
attr inifile omnetpp.ini
attr iterationvars ""
attr iterationvars2 $repetition=0
attr measurement ""
attr network tirtproject.AdmissionControl.ACBannedIP
attr processid 5088
attr repetition 0
attr replication #0
attr resultdir results
attr runnumber 0
attr seedset 0

statistic ACBannedIP.sink 	"interarrival times"
field count 24
field mean 0.94697873928862
field stddev 0.98723510803544
field sum 22.727489742927
field sqrsum 43.93901223032
field min 0
field max 3.845221869141
bin	-INF	0
bin	-1.9226109345705	0
bin	-1.6662628099611	0
bin	-1.4099146853517	0
bin	-1.1535665607423	0
bin	-0.8972184361329	0
bin	-0.6408703115235	0
bin	-0.3845221869141	0
bin	-0.1281740623047	3
bin	0.1281740623047	6
bin	0.3845221869141	4
bin	0.6408703115235	0
bin	0.8972184361329	6
bin	1.1535665607423	0
bin	1.4099146853517	0
bin	1.6662628099611	1
bin	1.9226109345705	1
bin	2.1789590591799	1
bin	2.4353071837893	0
bin	2.6916553083987	1
bin	2.9480034330081	0
bin	3.2043515576175	0
bin	3.4606996822269	0
bin	3.7170478068363	1
bin	3.9733959314457	0
bin	4.2297440560551	0
bin	4.4860921806645	0
bin	4.7424403052739	0
bin	4.9987884298833	0
bin	5.2551365544927	0
bin	5.5114846791021	0
bin	5.7678328037115	0
