version 2
run ACBannedIP-0-20121205-17:58:54-4116
attr configname ACBannedIP
attr datetime 20121205-17:58:54
attr experiment ACBannedIP
attr inifile omnetpp.ini
attr iterationvars ""
attr iterationvars2 $repetition=0
attr measurement ""
attr network tirtproject.AdmissionControl.ACBannedIP
attr processid 4116
attr repetition 0
attr replication #0
attr resultdir results
attr runnumber 0
attr seedset 0

statistic ACBannedIP.sink 	"interarrival times"
field count 202
field mean 0.63118811881188
field stddev 0.66119482296967
field sum 127.5
field sqrsum 168.34938252682
field min 5.5351895e-005
field max 4
bin	-INF	0
bin	-1.9867887453305	0
bin	-1.720709245538	0
bin	-1.4546297457456	0
bin	-1.1885502459531	0
bin	-0.92247074616063	0
bin	-0.65639124636817	0
bin	-0.3903117465757	0
bin	-0.12423224678323	43
bin	0.14184725300923	54
bin	0.4079267528017	38
bin	0.67400625259417	19
bin	0.94008575238663	21
bin	1.2061652521791	6
bin	1.4722447519716	7
bin	1.738324251764	3
bin	2.0044037515565	5
bin	2.270483251349	2
bin	2.5365627511414	0
bin	2.8026422509339	1
bin	3.0687217507264	1
bin	3.3348012505188	1
bin	3.6008807503113	0
bin	3.8669602501038	1
bin	4.1330397498962	0
bin	4.3991192496887	0
bin	4.6651987494812	0
bin	4.9312782492736	0
bin	5.1973577490661	0
bin	5.4634372488586	0
bin	5.729516748651	0
bin	5.9955962484435	0
