version 2
run OnOff-0-20121027-09:30:53-896
attr configname OnOff
attr datetime 20121027-09:30:53
attr experiment OnOff
attr inifile omnetpp.ini
attr iterationvars ""
attr iterationvars2 $repetition=0
attr measurement ""
attr network OnOff
attr processid 896
attr repetition 0
attr replication #0
attr resultdir results
attr runnumber 0
attr seedset 0

statistic OnOff.Node_e 	"interarrival times"
field count 3
field mean 0.26986777696133
field stddev 0.40474518889428
field sum 0.809603330884
field sqrsum 0.5461231869923
field min 0
field max 0.735251669454
bin	-INF	0
bin	-0.367625834727	0
bin	-0.3186090567634	0
bin	-0.2695922787998	0
bin	-0.2205755008362	0
bin	-0.1715587228726	0
bin	-0.122541944909	0
bin	-0.0735251669454	0
bin	-0.0245083889818	1
bin	0.0245083889818	0
bin	0.0735251669454	1
bin	0.122541944909	0
bin	0.1715587228726	0
bin	0.2205755008362	0
bin	0.2695922787998	0
bin	0.3186090567634	0
bin	0.367625834727	0
bin	0.4166426126906	0
bin	0.4656593906542	0
bin	0.5146761686178	0
bin	0.5636929465814	0
bin	0.612709724545	0
bin	0.6617265025086	0
bin	0.7107432804722	1
bin	0.7597600584358	0
bin	0.8087768363994	0
bin	0.857793614363	0
bin	0.9068103923266	0
bin	0.9558271702902	0
bin	1.0048439482538	0
bin	1.0538607262174	0
bin	1.102877504181	0
