version 2
run OnOff-0-20121027-11:04:32-6794
attr configname OnOff
attr datetime 20121027-11:04:32
attr experiment OnOff
attr inifile omnetpp.ini
attr iterationvars ""
attr iterationvars2 $repetition=0
attr measurement ""
attr network OnOff
attr processid 6794
attr repetition 0
attr replication #0
attr resultdir results
attr runnumber 0
attr seedset 0

statistic OnOff.Node_e 	"interarrival times"
field count 537
field mean 0.51785452606873
field stddev 0.52143744035619
field sum 278.08788049891
field sqrsum 289.74586181522
field min 0
field max 3.116287456904
bin	-INF	0
bin	-1.558143728452	0
bin	-1.3503912313251	0
bin	-1.1426387341981	0
bin	-0.9348862370712	0
bin	-0.72713373994427	0
bin	-0.51938124281733	0
bin	-0.3116287456904	0
bin	-0.10387624856347	99
bin	0.10387624856347	158
bin	0.3116287456904	88
bin	0.51938124281733	58
bin	0.72713373994427	38
bin	0.9348862370712	27
bin	1.1426387341981	26
bin	1.3503912313251	17
bin	1.558143728452	6
bin	1.7658962255789	6
bin	1.9736487227059	6
bin	2.1814012198328	4
bin	2.3891537169597	2
bin	2.5969062140867	0
bin	2.8046587112136	1
bin	3.0124112083405	1
bin	3.2201637054675	0
bin	3.4279162025944	0
bin	3.6356686997213	0
bin	3.8434211968483	0
bin	4.0511736939752	0
bin	4.2589261911021	0
bin	4.4666786882291	0
bin	4.674431185356	0
